* NGSPICE file created from housekeeping.ext - technology: gf180mcuC

* Black-box entry subcircuit for gf180mcu_fd_sc_mcu7t5v0__fill_2 abstract view
.subckt gf180mcu_fd_sc_mcu7t5v0__fill_2 VDD VSS
.ends

* Black-box entry subcircuit for gf180mcu_fd_sc_mcu7t5v0__fillcap_4 abstract view
.subckt gf180mcu_fd_sc_mcu7t5v0__fillcap_4 VDD VSS
.ends

* Black-box entry subcircuit for gf180mcu_fd_sc_mcu7t5v0__fillcap_16 abstract view
.subckt gf180mcu_fd_sc_mcu7t5v0__fillcap_16 VDD VSS
.ends

* Black-box entry subcircuit for gf180mcu_fd_sc_mcu7t5v0__dffnsnq_1 abstract view
.subckt gf180mcu_fd_sc_mcu7t5v0__dffnsnq_1 D SETN CLKN Q VDD VSS
.ends

* Black-box entry subcircuit for gf180mcu_fd_sc_mcu7t5v0__fill_1 abstract view
.subckt gf180mcu_fd_sc_mcu7t5v0__fill_1 VDD VSS
.ends

* Black-box entry subcircuit for gf180mcu_fd_sc_mcu7t5v0__nor2_4 abstract view
.subckt gf180mcu_fd_sc_mcu7t5v0__nor2_4 A1 A2 ZN VDD VSS
.ends

* Black-box entry subcircuit for gf180mcu_fd_sc_mcu7t5v0__dffsnq_1 abstract view
.subckt gf180mcu_fd_sc_mcu7t5v0__dffsnq_1 D SETN CLK Q VDD VSS
.ends

* Black-box entry subcircuit for gf180mcu_fd_sc_mcu7t5v0__aoi222_1 abstract view
.subckt gf180mcu_fd_sc_mcu7t5v0__aoi222_1 A1 A2 B1 B2 C1 C2 ZN VDD VSS
.ends

* Black-box entry subcircuit for gf180mcu_fd_sc_mcu7t5v0__aoi22_1 abstract view
.subckt gf180mcu_fd_sc_mcu7t5v0__aoi22_1 A1 A2 B1 B2 ZN VDD VSS
.ends

* Black-box entry subcircuit for gf180mcu_fd_sc_mcu7t5v0__nand4_1 abstract view
.subckt gf180mcu_fd_sc_mcu7t5v0__nand4_1 A1 A2 A3 A4 ZN VDD VSS
.ends

* Black-box entry subcircuit for gf180mcu_fd_sc_mcu7t5v0__nand4_2 abstract view
.subckt gf180mcu_fd_sc_mcu7t5v0__nand4_2 A1 A2 A3 A4 ZN VDD VSS
.ends

* Black-box entry subcircuit for gf180mcu_fd_sc_mcu7t5v0__fillcap_8 abstract view
.subckt gf180mcu_fd_sc_mcu7t5v0__fillcap_8 VDD VSS
.ends

* Black-box entry subcircuit for gf180mcu_fd_sc_mcu7t5v0__oai21_1 abstract view
.subckt gf180mcu_fd_sc_mcu7t5v0__oai21_1 A1 A2 B ZN VDD VSS
.ends

* Black-box entry subcircuit for gf180mcu_fd_sc_mcu7t5v0__nor3_1 abstract view
.subckt gf180mcu_fd_sc_mcu7t5v0__nor3_1 A1 A2 A3 ZN VDD VSS
.ends

* Black-box entry subcircuit for gf180mcu_fd_sc_mcu7t5v0__nand2_1 abstract view
.subckt gf180mcu_fd_sc_mcu7t5v0__nand2_1 A1 A2 ZN VDD VSS
.ends

* Black-box entry subcircuit for gf180mcu_fd_sc_mcu7t5v0__dlyd_4 abstract view
.subckt gf180mcu_fd_sc_mcu7t5v0__dlyd_4 I Z VDD VSS
.ends

* Black-box entry subcircuit for gf180mcu_fd_sc_mcu7t5v0__and2_1 abstract view
.subckt gf180mcu_fd_sc_mcu7t5v0__and2_1 A1 A2 Z VDD VSS
.ends

* Black-box entry subcircuit for gf180mcu_fd_sc_mcu7t5v0__filltie abstract view
.subckt gf180mcu_fd_sc_mcu7t5v0__filltie VDD VSS
.ends

* Black-box entry subcircuit for gf180mcu_fd_sc_mcu7t5v0__or2_1 abstract view
.subckt gf180mcu_fd_sc_mcu7t5v0__or2_1 A1 A2 Z VDD VSS
.ends

* Black-box entry subcircuit for gf180mcu_fd_sc_mcu7t5v0__nand2_4 abstract view
.subckt gf180mcu_fd_sc_mcu7t5v0__nand2_4 A1 A2 ZN VDD VSS
.ends

* Black-box entry subcircuit for gf180mcu_fd_sc_mcu7t5v0__aoi21_1 abstract view
.subckt gf180mcu_fd_sc_mcu7t5v0__aoi21_1 A1 A2 B ZN VDD VSS
.ends

* Black-box entry subcircuit for gf180mcu_fd_sc_mcu7t5v0__aoi211_1 abstract view
.subckt gf180mcu_fd_sc_mcu7t5v0__aoi211_1 A1 A2 B C ZN VDD VSS
.ends

* Black-box entry subcircuit for gf180mcu_fd_sc_mcu7t5v0__nor2_1 abstract view
.subckt gf180mcu_fd_sc_mcu7t5v0__nor2_1 A1 A2 ZN VDD VSS
.ends

* Black-box entry subcircuit for gf180mcu_fd_sc_mcu7t5v0__nor4_2 abstract view
.subckt gf180mcu_fd_sc_mcu7t5v0__nor4_2 A1 A2 A3 A4 ZN VDD VSS
.ends

* Black-box entry subcircuit for gf180mcu_fd_sc_mcu7t5v0__dffq_1 abstract view
.subckt gf180mcu_fd_sc_mcu7t5v0__dffq_1 D CLK Q VDD VSS
.ends

* Black-box entry subcircuit for gf180mcu_fd_sc_mcu7t5v0__dffrnq_1 abstract view
.subckt gf180mcu_fd_sc_mcu7t5v0__dffrnq_1 D RN CLK Q VDD VSS
.ends

* Black-box entry subcircuit for gf180mcu_fd_sc_mcu7t5v0__nor2_2 abstract view
.subckt gf180mcu_fd_sc_mcu7t5v0__nor2_2 A1 A2 ZN VDD VSS
.ends

* Black-box entry subcircuit for gf180mcu_fd_sc_mcu7t5v0__mux2_2 abstract view
.subckt gf180mcu_fd_sc_mcu7t5v0__mux2_2 I0 I1 S Z VDD VSS
.ends

* Black-box entry subcircuit for gf180mcu_fd_sc_mcu7t5v0__xor2_4 abstract view
.subckt gf180mcu_fd_sc_mcu7t5v0__xor2_4 A1 A2 Z VDD VSS
.ends

* Black-box entry subcircuit for gf180mcu_fd_sc_mcu7t5v0__oai31_2 abstract view
.subckt gf180mcu_fd_sc_mcu7t5v0__oai31_2 A1 A2 A3 B ZN VDD VSS
.ends

* Black-box entry subcircuit for gf180mcu_fd_sc_mcu7t5v0__clkinv_1 abstract view
.subckt gf180mcu_fd_sc_mcu7t5v0__clkinv_1 I ZN VDD VSS
.ends

* Black-box entry subcircuit for gf180mcu_fd_sc_mcu7t5v0__buf_8 abstract view
.subckt gf180mcu_fd_sc_mcu7t5v0__buf_8 I Z VDD VSS
.ends

* Black-box entry subcircuit for gf180mcu_fd_sc_mcu7t5v0__nand4_4 abstract view
.subckt gf180mcu_fd_sc_mcu7t5v0__nand4_4 A1 A2 A3 A4 ZN VDD VSS
.ends

* Black-box entry subcircuit for gf180mcu_fd_sc_mcu7t5v0__or4_2 abstract view
.subckt gf180mcu_fd_sc_mcu7t5v0__or4_2 A1 A2 A3 A4 Z VDD VSS
.ends

* Black-box entry subcircuit for gf180mcu_fd_sc_mcu7t5v0__oai22_1 abstract view
.subckt gf180mcu_fd_sc_mcu7t5v0__oai22_1 A1 A2 B1 B2 ZN VDD VSS
.ends

* Black-box entry subcircuit for gf180mcu_fd_sc_mcu7t5v0__and3_1 abstract view
.subckt gf180mcu_fd_sc_mcu7t5v0__and3_1 A1 A2 A3 Z VDD VSS
.ends

* Black-box entry subcircuit for gf180mcu_fd_sc_mcu7t5v0__dffsnq_2 abstract view
.subckt gf180mcu_fd_sc_mcu7t5v0__dffsnq_2 D SETN CLK Q VDD VSS
.ends

* Black-box entry subcircuit for gf180mcu_fd_sc_mcu7t5v0__nor4_4 abstract view
.subckt gf180mcu_fd_sc_mcu7t5v0__nor4_4 A1 A2 A3 A4 ZN VDD VSS
.ends

* Black-box entry subcircuit for gf180mcu_fd_sc_mcu7t5v0__fillcap_32 abstract view
.subckt gf180mcu_fd_sc_mcu7t5v0__fillcap_32 VDD VSS
.ends

* Black-box entry subcircuit for gf180mcu_fd_sc_mcu7t5v0__clkbuf_16 abstract view
.subckt gf180mcu_fd_sc_mcu7t5v0__clkbuf_16 I Z VDD VSS
.ends

* Black-box entry subcircuit for gf180mcu_fd_sc_mcu7t5v0__endcap abstract view
.subckt gf180mcu_fd_sc_mcu7t5v0__endcap VDD VSS
.ends

* Black-box entry subcircuit for gf180mcu_fd_sc_mcu7t5v0__nand3_1 abstract view
.subckt gf180mcu_fd_sc_mcu7t5v0__nand3_1 A1 A2 A3 ZN VDD VSS
.ends

* Black-box entry subcircuit for gf180mcu_fd_sc_mcu7t5v0__dffrnq_2 abstract view
.subckt gf180mcu_fd_sc_mcu7t5v0__dffrnq_2 D RN CLK Q VDD VSS
.ends

* Black-box entry subcircuit for gf180mcu_fd_sc_mcu7t5v0__nor3_4 abstract view
.subckt gf180mcu_fd_sc_mcu7t5v0__nor3_4 A1 A2 A3 ZN VDD VSS
.ends

* Black-box entry subcircuit for gf180mcu_fd_sc_mcu7t5v0__buf_12 abstract view
.subckt gf180mcu_fd_sc_mcu7t5v0__buf_12 I Z VDD VSS
.ends

* Black-box entry subcircuit for gf180mcu_fd_sc_mcu7t5v0__clkbuf_1 abstract view
.subckt gf180mcu_fd_sc_mcu7t5v0__clkbuf_1 I Z VDD VSS
.ends

* Black-box entry subcircuit for gf180mcu_fd_sc_mcu7t5v0__dffnrnq_1 abstract view
.subckt gf180mcu_fd_sc_mcu7t5v0__dffnrnq_1 D RN CLKN Q VDD VSS
.ends

* Black-box entry subcircuit for gf180mcu_fd_sc_mcu7t5v0__nand3_4 abstract view
.subckt gf180mcu_fd_sc_mcu7t5v0__nand3_4 A1 A2 A3 ZN VDD VSS
.ends

* Black-box entry subcircuit for gf180mcu_fd_sc_mcu7t5v0__and4_1 abstract view
.subckt gf180mcu_fd_sc_mcu7t5v0__and4_1 A1 A2 A3 A4 Z VDD VSS
.ends

* Black-box entry subcircuit for gf180mcu_fd_sc_mcu7t5v0__aoi221_1 abstract view
.subckt gf180mcu_fd_sc_mcu7t5v0__aoi221_1 A1 A2 B1 B2 C ZN VDD VSS
.ends

* Black-box entry subcircuit for gf180mcu_fd_sc_mcu7t5v0__oai32_1 abstract view
.subckt gf180mcu_fd_sc_mcu7t5v0__oai32_1 A1 A2 A3 B1 B2 ZN VDD VSS
.ends

* Black-box entry subcircuit for gf180mcu_fd_sc_mcu7t5v0__oai21_4 abstract view
.subckt gf180mcu_fd_sc_mcu7t5v0__oai21_4 A1 A2 B ZN VDD VSS
.ends

* Black-box entry subcircuit for gf180mcu_fd_sc_mcu7t5v0__inv_1 abstract view
.subckt gf180mcu_fd_sc_mcu7t5v0__inv_1 I ZN VDD VSS
.ends

* Black-box entry subcircuit for gf180mcu_fd_sc_mcu7t5v0__oai21_2 abstract view
.subckt gf180mcu_fd_sc_mcu7t5v0__oai21_2 A1 A2 B ZN VDD VSS
.ends

* Black-box entry subcircuit for gf180mcu_fd_sc_mcu7t5v0__nor4_1 abstract view
.subckt gf180mcu_fd_sc_mcu7t5v0__nor4_1 A1 A2 A3 A4 ZN VDD VSS
.ends

* Black-box entry subcircuit for gf180mcu_fd_sc_mcu7t5v0__aoi222_2 abstract view
.subckt gf180mcu_fd_sc_mcu7t5v0__aoi222_2 A1 A2 B1 B2 C1 C2 ZN VDD VSS
.ends

* Black-box entry subcircuit for gf180mcu_fd_sc_mcu7t5v0__oai211_1 abstract view
.subckt gf180mcu_fd_sc_mcu7t5v0__oai211_1 A1 A2 B C ZN VDD VSS
.ends

* Black-box entry subcircuit for gf180mcu_fd_sc_mcu7t5v0__or2_2 abstract view
.subckt gf180mcu_fd_sc_mcu7t5v0__or2_2 A1 A2 Z VDD VSS
.ends

* Black-box entry subcircuit for gf180mcu_fd_sc_mcu7t5v0__nand2_2 abstract view
.subckt gf180mcu_fd_sc_mcu7t5v0__nand2_2 A1 A2 ZN VDD VSS
.ends

* Black-box entry subcircuit for gf180mcu_fd_sc_mcu7t5v0__nor3_2 abstract view
.subckt gf180mcu_fd_sc_mcu7t5v0__nor3_2 A1 A2 A3 ZN VDD VSS
.ends

* Black-box entry subcircuit for gf180mcu_fd_sc_mcu7t5v0__buf_2 abstract view
.subckt gf180mcu_fd_sc_mcu7t5v0__buf_2 I Z VDD VSS
.ends

* Black-box entry subcircuit for gf180mcu_fd_sc_mcu7t5v0__clkbuf_12 abstract view
.subckt gf180mcu_fd_sc_mcu7t5v0__clkbuf_12 I Z VDD VSS
.ends

* Black-box entry subcircuit for gf180mcu_fd_sc_mcu7t5v0__aoi211_2 abstract view
.subckt gf180mcu_fd_sc_mcu7t5v0__aoi211_2 A1 A2 B C ZN VDD VSS
.ends

* Black-box entry subcircuit for gf180mcu_fd_sc_mcu7t5v0__aoi211_4 abstract view
.subckt gf180mcu_fd_sc_mcu7t5v0__aoi211_4 A1 A2 B C ZN VDD VSS
.ends

* Black-box entry subcircuit for gf180mcu_fd_sc_mcu7t5v0__xor2_1 abstract view
.subckt gf180mcu_fd_sc_mcu7t5v0__xor2_1 A1 A2 Z VDD VSS
.ends

* Black-box entry subcircuit for gf180mcu_fd_sc_mcu7t5v0__aoi21_4 abstract view
.subckt gf180mcu_fd_sc_mcu7t5v0__aoi21_4 A1 A2 B ZN VDD VSS
.ends

* Black-box entry subcircuit for gf180mcu_fd_sc_mcu7t5v0__oai31_1 abstract view
.subckt gf180mcu_fd_sc_mcu7t5v0__oai31_1 A1 A2 A3 B ZN VDD VSS
.ends

* Black-box entry subcircuit for gf180mcu_fd_sc_mcu7t5v0__buf_1 abstract view
.subckt gf180mcu_fd_sc_mcu7t5v0__buf_1 I Z VDD VSS
.ends

* Black-box entry subcircuit for gf180mcu_fd_sc_mcu7t5v0__dffrnq_4 abstract view
.subckt gf180mcu_fd_sc_mcu7t5v0__dffrnq_4 D RN CLK Q VDD VSS
.ends

* Black-box entry subcircuit for gf180mcu_fd_sc_mcu7t5v0__or3_1 abstract view
.subckt gf180mcu_fd_sc_mcu7t5v0__or3_1 A1 A2 A3 Z VDD VSS
.ends

* Black-box entry subcircuit for gf180mcu_fd_sc_mcu7t5v0__clkinv_3 abstract view
.subckt gf180mcu_fd_sc_mcu7t5v0__clkinv_3 I ZN VDD VSS
.ends

* Black-box entry subcircuit for gf180mcu_fd_sc_mcu7t5v0__or4_1 abstract view
.subckt gf180mcu_fd_sc_mcu7t5v0__or4_1 A1 A2 A3 A4 Z VDD VSS
.ends

* Black-box entry subcircuit for gf180mcu_fd_sc_mcu7t5v0__fillcap_64 abstract view
.subckt gf180mcu_fd_sc_mcu7t5v0__fillcap_64 VDD VSS
.ends

* Black-box entry subcircuit for gf180mcu_fd_sc_mcu7t5v0__inv_2 abstract view
.subckt gf180mcu_fd_sc_mcu7t5v0__inv_2 I ZN VDD VSS
.ends

* Black-box entry subcircuit for gf180mcu_fd_sc_mcu7t5v0__or2_4 abstract view
.subckt gf180mcu_fd_sc_mcu7t5v0__or2_4 A1 A2 Z VDD VSS
.ends

* Black-box entry subcircuit for gf180mcu_fd_sc_mcu7t5v0__or3_2 abstract view
.subckt gf180mcu_fd_sc_mcu7t5v0__or3_2 A1 A2 A3 Z VDD VSS
.ends

* Black-box entry subcircuit for gf180mcu_fd_sc_mcu7t5v0__dffsnq_4 abstract view
.subckt gf180mcu_fd_sc_mcu7t5v0__dffsnq_4 D SETN CLK Q VDD VSS
.ends

* Black-box entry subcircuit for gf180mcu_fd_sc_mcu7t5v0__clkinv_12 abstract view
.subckt gf180mcu_fd_sc_mcu7t5v0__clkinv_12 I ZN VDD VSS
.ends

* Black-box entry subcircuit for gf180mcu_fd_sc_mcu7t5v0__aoi221_4 abstract view
.subckt gf180mcu_fd_sc_mcu7t5v0__aoi221_4 A1 A2 B1 B2 C ZN VDD VSS
.ends

* Black-box entry subcircuit for gf180mcu_fd_sc_mcu7t5v0__nand3_2 abstract view
.subckt gf180mcu_fd_sc_mcu7t5v0__nand3_2 A1 A2 A3 ZN VDD VSS
.ends

* Black-box entry subcircuit for gf180mcu_fd_sc_mcu7t5v0__and2_4 abstract view
.subckt gf180mcu_fd_sc_mcu7t5v0__and2_4 A1 A2 Z VDD VSS
.ends

* Black-box entry subcircuit for gf180mcu_fd_sc_mcu7t5v0__aoi22_2 abstract view
.subckt gf180mcu_fd_sc_mcu7t5v0__aoi22_2 A1 A2 B1 B2 ZN VDD VSS
.ends

* Black-box entry subcircuit for gf180mcu_fd_sc_mcu7t5v0__and4_4 abstract view
.subckt gf180mcu_fd_sc_mcu7t5v0__and4_4 A1 A2 A3 A4 Z VDD VSS
.ends

* Black-box entry subcircuit for gf180mcu_fd_sc_mcu7t5v0__mux2_4 abstract view
.subckt gf180mcu_fd_sc_mcu7t5v0__mux2_4 I0 I1 S Z VDD VSS
.ends

* Black-box entry subcircuit for gf180mcu_fd_sc_mcu7t5v0__or4_4 abstract view
.subckt gf180mcu_fd_sc_mcu7t5v0__or4_4 A1 A2 A3 A4 Z VDD VSS
.ends

* Black-box entry subcircuit for gf180mcu_fd_sc_mcu7t5v0__and3_2 abstract view
.subckt gf180mcu_fd_sc_mcu7t5v0__and3_2 A1 A2 A3 Z VDD VSS
.ends

* Black-box entry subcircuit for gf180mcu_fd_sc_mcu7t5v0__oai221_2 abstract view
.subckt gf180mcu_fd_sc_mcu7t5v0__oai221_2 A1 A2 B1 B2 C ZN VDD VSS
.ends

* Black-box entry subcircuit for gf180mcu_fd_sc_mcu7t5v0__oai221_1 abstract view
.subckt gf180mcu_fd_sc_mcu7t5v0__oai221_1 A1 A2 B1 B2 C ZN VDD VSS
.ends

* Black-box entry subcircuit for gf180mcu_fd_sc_mcu7t5v0__inv_3 abstract view
.subckt gf180mcu_fd_sc_mcu7t5v0__inv_3 I ZN VDD VSS
.ends

* Black-box entry subcircuit for gf180mcu_fd_sc_mcu7t5v0__clkbuf_8 abstract view
.subckt gf180mcu_fd_sc_mcu7t5v0__clkbuf_8 I Z VDD VSS
.ends

* Black-box entry subcircuit for gf180mcu_fd_sc_mcu7t5v0__aoi21_2 abstract view
.subckt gf180mcu_fd_sc_mcu7t5v0__aoi21_2 A1 A2 B ZN VDD VSS
.ends

* Black-box entry subcircuit for gf180mcu_fd_sc_mcu7t5v0__clkbuf_4 abstract view
.subckt gf180mcu_fd_sc_mcu7t5v0__clkbuf_4 I Z VDD VSS
.ends

* Black-box entry subcircuit for gf180mcu_fd_sc_mcu7t5v0__xnor2_1 abstract view
.subckt gf180mcu_fd_sc_mcu7t5v0__xnor2_1 A1 A2 ZN VDD VSS
.ends

* Black-box entry subcircuit for gf180mcu_fd_sc_mcu7t5v0__oai22_4 abstract view
.subckt gf180mcu_fd_sc_mcu7t5v0__oai22_4 A1 A2 B1 B2 ZN VDD VSS
.ends

* Black-box entry subcircuit for gf180mcu_fd_sc_mcu7t5v0__clkbuf_2 abstract view
.subckt gf180mcu_fd_sc_mcu7t5v0__clkbuf_2 I Z VDD VSS
.ends

* Black-box entry subcircuit for gf180mcu_fd_sc_mcu7t5v0__aoi221_2 abstract view
.subckt gf180mcu_fd_sc_mcu7t5v0__aoi221_2 A1 A2 B1 B2 C ZN VDD VSS
.ends

* Black-box entry subcircuit for gf180mcu_fd_sc_mcu7t5v0__tieh abstract view
.subckt gf180mcu_fd_sc_mcu7t5v0__tieh Z VDD VSS
.ends

* Black-box entry subcircuit for gf180mcu_fd_sc_mcu7t5v0__buf_16 abstract view
.subckt gf180mcu_fd_sc_mcu7t5v0__buf_16 I Z VDD VSS
.ends

* Black-box entry subcircuit for gf180mcu_fd_sc_mcu7t5v0__and2_2 abstract view
.subckt gf180mcu_fd_sc_mcu7t5v0__and2_2 A1 A2 Z VDD VSS
.ends

* Black-box entry subcircuit for gf180mcu_fd_sc_mcu7t5v0__buf_20 abstract view
.subckt gf180mcu_fd_sc_mcu7t5v0__buf_20 I Z VDD VSS
.ends

* Black-box entry subcircuit for gf180mcu_fd_sc_mcu7t5v0__oai211_4 abstract view
.subckt gf180mcu_fd_sc_mcu7t5v0__oai211_4 A1 A2 B C ZN VDD VSS
.ends

* Black-box entry subcircuit for gf180mcu_fd_sc_mcu7t5v0__and4_2 abstract view
.subckt gf180mcu_fd_sc_mcu7t5v0__and4_2 A1 A2 A3 A4 Z VDD VSS
.ends

* Black-box entry subcircuit for gf180mcu_fd_sc_mcu7t5v0__clkinv_8 abstract view
.subckt gf180mcu_fd_sc_mcu7t5v0__clkinv_8 I ZN VDD VSS
.ends

* Black-box entry subcircuit for gf180mcu_fd_sc_mcu7t5v0__inv_8 abstract view
.subckt gf180mcu_fd_sc_mcu7t5v0__inv_8 I ZN VDD VSS
.ends

* Black-box entry subcircuit for gf180mcu_fd_sc_mcu7t5v0__oai33_1 abstract view
.subckt gf180mcu_fd_sc_mcu7t5v0__oai33_1 A1 A2 A3 B1 B2 B3 ZN VDD VSS
.ends

* Black-box entry subcircuit for gf180mcu_fd_sc_mcu7t5v0__buf_3 abstract view
.subckt gf180mcu_fd_sc_mcu7t5v0__buf_3 I Z VDD VSS
.ends

* Black-box entry subcircuit for gf180mcu_fd_sc_mcu7t5v0__clkinv_2 abstract view
.subckt gf180mcu_fd_sc_mcu7t5v0__clkinv_2 I ZN VDD VSS
.ends

* Black-box entry subcircuit for gf180mcu_fd_sc_mcu7t5v0__inv_4 abstract view
.subckt gf180mcu_fd_sc_mcu7t5v0__inv_4 I ZN VDD VSS
.ends

* Black-box entry subcircuit for gf180mcu_fd_sc_mcu7t5v0__aoi22_4 abstract view
.subckt gf180mcu_fd_sc_mcu7t5v0__aoi22_4 A1 A2 B1 B2 ZN VDD VSS
.ends

* Black-box entry subcircuit for gf180mcu_fd_sc_mcu7t5v0__oai32_2 abstract view
.subckt gf180mcu_fd_sc_mcu7t5v0__oai32_2 A1 A2 A3 B1 B2 ZN VDD VSS
.ends

* Black-box entry subcircuit for gf180mcu_fd_sc_mcu7t5v0__aoi222_4 abstract view
.subckt gf180mcu_fd_sc_mcu7t5v0__aoi222_4 A1 A2 B1 B2 C1 C2 ZN VDD VSS
.ends

* Black-box entry subcircuit for gf180mcu_fd_sc_mcu7t5v0__oai22_2 abstract view
.subckt gf180mcu_fd_sc_mcu7t5v0__oai22_2 A1 A2 B1 B2 ZN VDD VSS
.ends

* Black-box entry subcircuit for gf180mcu_fd_sc_mcu7t5v0__xor2_2 abstract view
.subckt gf180mcu_fd_sc_mcu7t5v0__xor2_2 A1 A2 Z VDD VSS
.ends

.subckt housekeeping VDD VSS debug_in debug_mode debug_oeb debug_out irq[0] irq[1]
+ irq[2] mask_rev_in[0] mask_rev_in[10] mask_rev_in[11] mask_rev_in[12] mask_rev_in[13]
+ mask_rev_in[14] mask_rev_in[15] mask_rev_in[16] mask_rev_in[17] mask_rev_in[18]
+ mask_rev_in[19] mask_rev_in[1] mask_rev_in[20] mask_rev_in[21] mask_rev_in[22] mask_rev_in[23]
+ mask_rev_in[24] mask_rev_in[25] mask_rev_in[26] mask_rev_in[27] mask_rev_in[28]
+ mask_rev_in[29] mask_rev_in[2] mask_rev_in[30] mask_rev_in[31] mask_rev_in[3] mask_rev_in[4]
+ mask_rev_in[5] mask_rev_in[6] mask_rev_in[7] mask_rev_in[8] mask_rev_in[9] mgmt_gpio_in[0]
+ mgmt_gpio_in[10] mgmt_gpio_in[11] mgmt_gpio_in[12] mgmt_gpio_in[13] mgmt_gpio_in[14]
+ mgmt_gpio_in[15] mgmt_gpio_in[16] mgmt_gpio_in[17] mgmt_gpio_in[18] mgmt_gpio_in[19]
+ mgmt_gpio_in[1] mgmt_gpio_in[20] mgmt_gpio_in[21] mgmt_gpio_in[22] mgmt_gpio_in[23]
+ mgmt_gpio_in[24] mgmt_gpio_in[25] mgmt_gpio_in[26] mgmt_gpio_in[27] mgmt_gpio_in[28]
+ mgmt_gpio_in[29] mgmt_gpio_in[2] mgmt_gpio_in[30] mgmt_gpio_in[31] mgmt_gpio_in[32]
+ mgmt_gpio_in[33] mgmt_gpio_in[34] mgmt_gpio_in[35] mgmt_gpio_in[36] mgmt_gpio_in[37]
+ mgmt_gpio_in[3] mgmt_gpio_in[4] mgmt_gpio_in[5] mgmt_gpio_in[6] mgmt_gpio_in[7]
+ mgmt_gpio_in[8] mgmt_gpio_in[9] mgmt_gpio_oeb[0] mgmt_gpio_oeb[10] mgmt_gpio_oeb[11]
+ mgmt_gpio_oeb[12] mgmt_gpio_oeb[13] mgmt_gpio_oeb[14] mgmt_gpio_oeb[15] mgmt_gpio_oeb[16]
+ mgmt_gpio_oeb[17] mgmt_gpio_oeb[18] mgmt_gpio_oeb[19] mgmt_gpio_oeb[1] mgmt_gpio_oeb[20]
+ mgmt_gpio_oeb[21] mgmt_gpio_oeb[22] mgmt_gpio_oeb[23] mgmt_gpio_oeb[24] mgmt_gpio_oeb[25]
+ mgmt_gpio_oeb[26] mgmt_gpio_oeb[27] mgmt_gpio_oeb[28] mgmt_gpio_oeb[29] mgmt_gpio_oeb[2]
+ mgmt_gpio_oeb[30] mgmt_gpio_oeb[31] mgmt_gpio_oeb[32] mgmt_gpio_oeb[33] mgmt_gpio_oeb[34]
+ mgmt_gpio_oeb[35] mgmt_gpio_oeb[36] mgmt_gpio_oeb[37] mgmt_gpio_oeb[3] mgmt_gpio_oeb[4]
+ mgmt_gpio_oeb[5] mgmt_gpio_oeb[6] mgmt_gpio_oeb[7] mgmt_gpio_oeb[8] mgmt_gpio_oeb[9]
+ mgmt_gpio_out[0] mgmt_gpio_out[10] mgmt_gpio_out[11] mgmt_gpio_out[12] mgmt_gpio_out[13]
+ mgmt_gpio_out[14] mgmt_gpio_out[15] mgmt_gpio_out[16] mgmt_gpio_out[17] mgmt_gpio_out[18]
+ mgmt_gpio_out[19] mgmt_gpio_out[1] mgmt_gpio_out[20] mgmt_gpio_out[21] mgmt_gpio_out[22]
+ mgmt_gpio_out[23] mgmt_gpio_out[24] mgmt_gpio_out[25] mgmt_gpio_out[26] mgmt_gpio_out[27]
+ mgmt_gpio_out[28] mgmt_gpio_out[29] mgmt_gpio_out[2] mgmt_gpio_out[30] mgmt_gpio_out[31]
+ mgmt_gpio_out[32] mgmt_gpio_out[33] mgmt_gpio_out[34] mgmt_gpio_out[35] mgmt_gpio_out[36]
+ mgmt_gpio_out[37] mgmt_gpio_out[3] mgmt_gpio_out[4] mgmt_gpio_out[5] mgmt_gpio_out[6]
+ mgmt_gpio_out[7] mgmt_gpio_out[8] mgmt_gpio_out[9] pad_flash_clk pad_flash_clk_oe
+ pad_flash_csb pad_flash_csb_oe pad_flash_io0_di pad_flash_io0_do pad_flash_io0_ie
+ pad_flash_io0_oe pad_flash_io1_di pad_flash_io1_do pad_flash_io1_ie pad_flash_io1_oe
+ pll90_sel[0] pll90_sel[1] pll90_sel[2] pll_bypass pll_dco_ena pll_div[0] pll_div[1]
+ pll_div[2] pll_div[3] pll_div[4] pll_ena pll_sel[0] pll_sel[1] pll_sel[2] pll_trim[0]
+ pll_trim[10] pll_trim[11] pll_trim[12] pll_trim[13] pll_trim[14] pll_trim[15] pll_trim[16]
+ pll_trim[17] pll_trim[18] pll_trim[19] pll_trim[1] pll_trim[20] pll_trim[21] pll_trim[22]
+ pll_trim[23] pll_trim[24] pll_trim[25] pll_trim[2] pll_trim[3] pll_trim[4] pll_trim[5]
+ pll_trim[6] pll_trim[7] pll_trim[8] pll_trim[9] porb pwr_ctrl_out qspi_enabled reset
+ ser_rx ser_tx serial_clock serial_data_1 serial_data_2 serial_load serial_resetn
+ spi_csb spi_enabled spi_sck spi_sdi spi_sdo spi_sdoenb spimemio_flash_clk spimemio_flash_csb
+ spimemio_flash_io0_di spimemio_flash_io0_do spimemio_flash_io0_oeb spimemio_flash_io1_di
+ spimemio_flash_io1_do spimemio_flash_io1_oeb spimemio_flash_io2_di spimemio_flash_io2_do
+ spimemio_flash_io2_oeb spimemio_flash_io3_di spimemio_flash_io3_do spimemio_flash_io3_oeb
+ trap uart_enabled user_clock wb_ack_o wb_adr_i[0] wb_adr_i[10] wb_adr_i[11] wb_adr_i[12]
+ wb_adr_i[13] wb_adr_i[14] wb_adr_i[15] wb_adr_i[16] wb_adr_i[17] wb_adr_i[18] wb_adr_i[19]
+ wb_adr_i[1] wb_adr_i[20] wb_adr_i[21] wb_adr_i[22] wb_adr_i[23] wb_adr_i[24] wb_adr_i[25]
+ wb_adr_i[26] wb_adr_i[27] wb_adr_i[28] wb_adr_i[29] wb_adr_i[2] wb_adr_i[30] wb_adr_i[31]
+ wb_adr_i[3] wb_adr_i[4] wb_adr_i[5] wb_adr_i[6] wb_adr_i[7] wb_adr_i[8] wb_adr_i[9]
+ wb_clk_i wb_cyc_i wb_dat_i[0] wb_dat_i[10] wb_dat_i[11] wb_dat_i[12] wb_dat_i[13]
+ wb_dat_i[14] wb_dat_i[15] wb_dat_i[16] wb_dat_i[17] wb_dat_i[18] wb_dat_i[19] wb_dat_i[1]
+ wb_dat_i[20] wb_dat_i[21] wb_dat_i[22] wb_dat_i[23] wb_dat_i[24] wb_dat_i[25] wb_dat_i[26]
+ wb_dat_i[27] wb_dat_i[28] wb_dat_i[29] wb_dat_i[2] wb_dat_i[30] wb_dat_i[31] wb_dat_i[3]
+ wb_dat_i[4] wb_dat_i[5] wb_dat_i[6] wb_dat_i[7] wb_dat_i[8] wb_dat_i[9] wb_dat_o[0]
+ wb_dat_o[10] wb_dat_o[11] wb_dat_o[12] wb_dat_o[13] wb_dat_o[14] wb_dat_o[15] wb_dat_o[16]
+ wb_dat_o[17] wb_dat_o[18] wb_dat_o[19] wb_dat_o[1] wb_dat_o[20] wb_dat_o[21] wb_dat_o[22]
+ wb_dat_o[23] wb_dat_o[24] wb_dat_o[25] wb_dat_o[26] wb_dat_o[27] wb_dat_o[28] wb_dat_o[29]
+ wb_dat_o[2] wb_dat_o[30] wb_dat_o[31] wb_dat_o[3] wb_dat_o[4] wb_dat_o[5] wb_dat_o[6]
+ wb_dat_o[7] wb_dat_o[8] wb_dat_o[9] wb_rstn_i wb_sel_i[0] wb_sel_i[1] wb_sel_i[2]
+ wb_sel_i[3] wb_stb_i wb_we_i
XFILLER_39_211 VDD VSS gf180mcu_fd_sc_mcu7t5v0__fill_2
XFILLER_67_564 VDD VSS gf180mcu_fd_sc_mcu7t5v0__fillcap_4
XFILLER_94_383 VDD VSS gf180mcu_fd_sc_mcu7t5v0__fillcap_4
XFILLER_82_534 VDD VSS gf180mcu_fd_sc_mcu7t5v0__fillcap_16
X_7963_ _7963_/D _7316_/Z _7977_/CLK _7963_/Q VDD VSS gf180mcu_fd_sc_mcu7t5v0__dffnsnq_1
XFILLER_27_428 VDD VSS gf180mcu_fd_sc_mcu7t5v0__fill_2
XFILLER_27_439 VDD VSS gf180mcu_fd_sc_mcu7t5v0__fill_2
XFILLER_54_258 VDD VSS gf180mcu_fd_sc_mcu7t5v0__fill_1
X_6914_ _6955_/A4 _6935_/A2 _7202_/A2 VDD VSS gf180mcu_fd_sc_mcu7t5v0__nor2_4
X_7894_ _7894_/D _7901_/RN _7898_/CLK _7894_/Q VDD VSS gf180mcu_fd_sc_mcu7t5v0__dffsnq_1
X_6845_ _7667_/Q _6885_/A2 _6647_/Z _7619_/Q _6887_/B1 _7683_/Q _6847_/A2 VDD VSS
+ gf180mcu_fd_sc_mcu7t5v0__aoi222_1
XFILLER_52_29 VDD VSS gf180mcu_fd_sc_mcu7t5v0__fillcap_4
XFILLER_168_29 VDD VSS gf180mcu_fd_sc_mcu7t5v0__fillcap_4
X_3988_ _7625_/Q _5954_/A1 _6226_/A1 _7753_/Q _3989_/A4 VDD VSS gf180mcu_fd_sc_mcu7t5v0__aoi22_1
X_6776_ _6776_/A1 _6776_/A2 _6776_/A3 _6776_/A4 _6777_/A3 VDD VSS gf180mcu_fd_sc_mcu7t5v0__nand4_1
XFILLER_164_801 VDD VSS gf180mcu_fd_sc_mcu7t5v0__fill_2
X_5727_ _5331_/Z _5727_/A2 _5437_/B _5619_/Z _5763_/A3 VDD VSS gf180mcu_fd_sc_mcu7t5v0__nand4_2
XFILLER_109_706 VDD VSS gf180mcu_fd_sc_mcu7t5v0__fillcap_4
XFILLER_148_374 VDD VSS gf180mcu_fd_sc_mcu7t5v0__fill_1
XFILLER_136_514 VDD VSS gf180mcu_fd_sc_mcu7t5v0__fill_2
XFILLER_109_728 VDD VSS gf180mcu_fd_sc_mcu7t5v0__fillcap_8
XFILLER_148_396 VDD VSS gf180mcu_fd_sc_mcu7t5v0__fill_2
X_5658_ _5669_/A1 _5179_/B _5658_/B _5674_/A3 VDD VSS gf180mcu_fd_sc_mcu7t5v0__oai21_1
X_5589_ _5589_/A1 _5589_/A2 _5589_/A3 _5590_/A2 VDD VSS gf180mcu_fd_sc_mcu7t5v0__nor3_1
XFILLER_2_505 VDD VSS gf180mcu_fd_sc_mcu7t5v0__fill_2
X_4609_ _4609_/A1 _7285_/A2 _4613_/A2 VDD VSS gf180mcu_fd_sc_mcu7t5v0__nand2_1
XFILLER_144_580 VDD VSS gf180mcu_fd_sc_mcu7t5v0__fill_2
XFILLER_123_219 VDD VSS gf180mcu_fd_sc_mcu7t5v0__fill_2
XFILLER_117_783 VDD VSS gf180mcu_fd_sc_mcu7t5v0__fill_2
Xhold351 _7619_/Q hold351/Z VDD VSS gf180mcu_fd_sc_mcu7t5v0__dlyd_4
X_7328_ _7901_/RN _4334_/Z _7328_/Z VDD VSS gf180mcu_fd_sc_mcu7t5v0__and2_1
Xhold362 _7785_/Q hold362/Z VDD VSS gf180mcu_fd_sc_mcu7t5v0__dlyd_4
Xhold340 _7642_/Q hold340/Z VDD VSS gf180mcu_fd_sc_mcu7t5v0__dlyd_4
X_7259_ _7518_/Q _7259_/A2 _7261_/A1 VDD VSS gf180mcu_fd_sc_mcu7t5v0__nand2_1
XFILLER_132_753 VDD VSS gf180mcu_fd_sc_mcu7t5v0__fill_1
XFILLER_104_444 VDD VSS gf180mcu_fd_sc_mcu7t5v0__fillcap_4
XFILLER_89_144 VDD VSS gf180mcu_fd_sc_mcu7t5v0__fill_1
Xhold373 _7769_/Q hold373/Z VDD VSS gf180mcu_fd_sc_mcu7t5v0__dlyd_4
Xhold384 _7639_/Q hold384/Z VDD VSS gf180mcu_fd_sc_mcu7t5v0__dlyd_4
Xhold395 _7362_/Q hold395/Z VDD VSS gf180mcu_fd_sc_mcu7t5v0__dlyd_4
XFILLER_77_328 VDD VSS gf180mcu_fd_sc_mcu7t5v0__fillcap_8
XFILLER_58_531 VDD VSS gf180mcu_fd_sc_mcu7t5v0__fill_1
XFILLER_133_54 VDD VSS gf180mcu_fd_sc_mcu7t5v0__fill_2
XFILLER_85_361 VDD VSS gf180mcu_fd_sc_mcu7t5v0__fill_2
XFILLER_133_98 VDD VSS gf180mcu_fd_sc_mcu7t5v0__fill_2
XFILLER_45_225 VDD VSS gf180mcu_fd_sc_mcu7t5v0__fill_2
XFILLER_45_236 VDD VSS gf180mcu_fd_sc_mcu7t5v0__fillcap_8
XTAP_1800 VDD VSS gf180mcu_fd_sc_mcu7t5v0__filltie
XFILLER_61_707 VDD VSS gf180mcu_fd_sc_mcu7t5v0__fill_2
XFILLER_165_2 VDD VSS gf180mcu_fd_sc_mcu7t5v0__fillcap_4
XTAP_1833 VDD VSS gf180mcu_fd_sc_mcu7t5v0__filltie
XTAP_1822 VDD VSS gf180mcu_fd_sc_mcu7t5v0__filltie
XTAP_1811 VDD VSS gf180mcu_fd_sc_mcu7t5v0__filltie
XFILLER_14_601 VDD VSS gf180mcu_fd_sc_mcu7t5v0__fill_2
XTAP_1866 VDD VSS gf180mcu_fd_sc_mcu7t5v0__filltie
XTAP_1855 VDD VSS gf180mcu_fd_sc_mcu7t5v0__filltie
XTAP_1844 VDD VSS gf180mcu_fd_sc_mcu7t5v0__filltie
XFILLER_53_280 VDD VSS gf180mcu_fd_sc_mcu7t5v0__fillcap_4
XTAP_1899 VDD VSS gf180mcu_fd_sc_mcu7t5v0__filltie
XTAP_1888 VDD VSS gf180mcu_fd_sc_mcu7t5v0__filltie
XTAP_1877 VDD VSS gf180mcu_fd_sc_mcu7t5v0__filltie
XFILLER_13_144 VDD VSS gf180mcu_fd_sc_mcu7t5v0__fillcap_16
XFILLER_14_678 VDD VSS gf180mcu_fd_sc_mcu7t5v0__fill_1
XFILLER_42_62 VDD VSS gf180mcu_fd_sc_mcu7t5v0__fillcap_8
XFILLER_155_812 VDD VSS gf180mcu_fd_sc_mcu7t5v0__fill_1
XFILLER_127_525 VDD VSS gf180mcu_fd_sc_mcu7t5v0__fill_2
XFILLER_182_620 VDD VSS gf180mcu_fd_sc_mcu7t5v0__fill_2
XFILLER_158_95 VDD VSS gf180mcu_fd_sc_mcu7t5v0__fill_2
XFILLER_5_310 VDD VSS gf180mcu_fd_sc_mcu7t5v0__fillcap_4
XFILLER_181_141 VDD VSS gf180mcu_fd_sc_mcu7t5v0__fill_1
XFILLER_115_709 VDD VSS gf180mcu_fd_sc_mcu7t5v0__fill_1
XFILLER_5_354 VDD VSS gf180mcu_fd_sc_mcu7t5v0__fill_1
XFILLER_142_528 VDD VSS gf180mcu_fd_sc_mcu7t5v0__fillcap_4
XFILLER_123_720 VDD VSS gf180mcu_fd_sc_mcu7t5v0__fill_2
XFILLER_114_219 VDD VSS gf180mcu_fd_sc_mcu7t5v0__fillcap_4
XFILLER_150_583 VDD VSS gf180mcu_fd_sc_mcu7t5v0__fillcap_4
XFILLER_96_637 VDD VSS gf180mcu_fd_sc_mcu7t5v0__fill_2
XFILLER_3_23 VDD VSS gf180mcu_fd_sc_mcu7t5v0__fillcap_4
XFILLER_37_704 VDD VSS gf180mcu_fd_sc_mcu7t5v0__fillcap_4
XFILLER_64_534 VDD VSS gf180mcu_fd_sc_mcu7t5v0__fillcap_8
XFILLER_36_203 VDD VSS gf180mcu_fd_sc_mcu7t5v0__fillcap_4
XFILLER_36_247 VDD VSS gf180mcu_fd_sc_mcu7t5v0__fill_1
X_4960_ _5797_/B _4965_/B _4960_/Z VDD VSS gf180mcu_fd_sc_mcu7t5v0__or2_1
XFILLER_17_483 VDD VSS gf180mcu_fd_sc_mcu7t5v0__fill_1
XFILLER_51_206 VDD VSS gf180mcu_fd_sc_mcu7t5v0__fillcap_4
X_3911_ _3911_/A1 _3911_/A2 _3911_/A3 _3911_/A4 _3917_/A3 VDD VSS gf180mcu_fd_sc_mcu7t5v0__nand4_1
X_4891_ hold607/Z _4892_/A2 _4892_/B VDD VSS gf180mcu_fd_sc_mcu7t5v0__nand2_1
XFILLER_177_425 VDD VSS gf180mcu_fd_sc_mcu7t5v0__fill_1
X_3842_ _3796_/Z hold113/Z hold114/I VDD VSS gf180mcu_fd_sc_mcu7t5v0__nor2_4
XFILLER_60_784 VDD VSS gf180mcu_fd_sc_mcu7t5v0__fillcap_16
XFILLER_20_615 VDD VSS gf180mcu_fd_sc_mcu7t5v0__fill_1
X_6630_ _7907_/Q _6633_/A2 _6664_/A3 VDD VSS gf180mcu_fd_sc_mcu7t5v0__nand2_4
XFILLER_80_2 VDD VSS gf180mcu_fd_sc_mcu7t5v0__fill_1
X_6561_ _7902_/Q _7903_/Q _6561_/Z VDD VSS gf180mcu_fd_sc_mcu7t5v0__and2_1
XFILLER_164_108 VDD VSS gf180mcu_fd_sc_mcu7t5v0__fill_1
XFILLER_146_812 VDD VSS gf180mcu_fd_sc_mcu7t5v0__fill_1
X_5512_ _5621_/B _5648_/B2 _5512_/B _5514_/A3 VDD VSS gf180mcu_fd_sc_mcu7t5v0__aoi21_1
X_3773_ _4292_/B _3774_/A2 _7965_/Q _3774_/B VDD VSS gf180mcu_fd_sc_mcu7t5v0__oai21_1
X_6492_ _4460_/Z _6502_/A2 _6492_/B _7872_/D VDD VSS gf180mcu_fd_sc_mcu7t5v0__oai21_1
XFILLER_9_682 VDD VSS gf180mcu_fd_sc_mcu7t5v0__fill_2
XFILLER_118_569 VDD VSS gf180mcu_fd_sc_mcu7t5v0__fill_2
X_5443_ _5621_/B _5648_/B2 _5629_/B _5572_/B _5444_/A4 VDD VSS gf180mcu_fd_sc_mcu7t5v0__aoi211_1
XFILLER_105_208 VDD VSS gf180mcu_fd_sc_mcu7t5v0__fillcap_4
X_5374_ _5405_/B _5504_/A3 _5577_/B2 VDD VSS gf180mcu_fd_sc_mcu7t5v0__nor2_1
X_4325_ _4309_/S _4325_/A2 _4325_/B _7336_/D VDD VSS gf180mcu_fd_sc_mcu7t5v0__oai21_1
X_7113_ _7796_/Q _7190_/A2 _7190_/B1 _7618_/Q _7190_/C1 _7706_/Q _7116_/A2 VDD VSS
+ gf180mcu_fd_sc_mcu7t5v0__aoi222_1
XFILLER_113_296 VDD VSS gf180mcu_fd_sc_mcu7t5v0__fill_1
XFILLER_86_136 VDD VSS gf180mcu_fd_sc_mcu7t5v0__fillcap_4
X_7044_ _7623_/Q _7195_/B1 _7200_/B1 _7865_/Q _7048_/A1 VDD VSS gf180mcu_fd_sc_mcu7t5v0__aoi22_1
X_4256_ _4256_/A1 _4256_/A2 _4256_/A3 _4256_/A4 _4263_/A2 VDD VSS gf180mcu_fd_sc_mcu7t5v0__nand4_1
XFILLER_67_361 VDD VSS gf180mcu_fd_sc_mcu7t5v0__fill_1
XFILLER_47_29 VDD VSS gf180mcu_fd_sc_mcu7t5v0__fillcap_4
X_4187_ _4187_/A1 _4187_/A2 _4187_/A3 _4187_/A4 _4203_/A1 VDD VSS gf180mcu_fd_sc_mcu7t5v0__nor4_2
XFILLER_55_545 VDD VSS gf180mcu_fd_sc_mcu7t5v0__fillcap_16
XFILLER_55_567 VDD VSS gf180mcu_fd_sc_mcu7t5v0__fill_1
X_7946_ _7946_/D _7949_/CLK _7946_/Q VDD VSS gf180mcu_fd_sc_mcu7t5v0__dffq_1
XTAP_1118 VDD VSS gf180mcu_fd_sc_mcu7t5v0__filltie
XTAP_1129 VDD VSS gf180mcu_fd_sc_mcu7t5v0__filltie
XTAP_1107 VDD VSS gf180mcu_fd_sc_mcu7t5v0__filltie
XFILLER_55_589 VDD VSS gf180mcu_fd_sc_mcu7t5v0__fill_2
X_7877_ _7877_/D _7901_/RN _7877_/CLK _7877_/Q VDD VSS gf180mcu_fd_sc_mcu7t5v0__dffrnq_1
XFILLER_35_280 VDD VSS gf180mcu_fd_sc_mcu7t5v0__fillcap_4
XFILLER_36_792 VDD VSS gf180mcu_fd_sc_mcu7t5v0__fill_2
X_6828_ _7927_/Q _7133_/S _6829_/B VDD VSS gf180mcu_fd_sc_mcu7t5v0__nand2_1
XFILLER_23_442 VDD VSS gf180mcu_fd_sc_mcu7t5v0__fill_2
XFILLER_50_250 VDD VSS gf180mcu_fd_sc_mcu7t5v0__fill_1
XFILLER_11_626 VDD VSS gf180mcu_fd_sc_mcu7t5v0__fillcap_4
XFILLER_137_812 VDD VSS gf180mcu_fd_sc_mcu7t5v0__fill_1
XFILLER_109_514 VDD VSS gf180mcu_fd_sc_mcu7t5v0__fill_2